/*--------------------------------*- C++ -*----------------------------------*\
| =========                 |                                                 |
| \\      /  F ield         | OpenFOAM: The Open Source CFD Toolbox           |
|  \\    /   O peration     | Version:  v2406                                 |
|   \\  /    A nd           | Website:  www.openfoam.com                      |
|    \\/     M anipulation  |                                                 |
\*---------------------------------------------------------------------------*/
FoamFile
{
    version     2.0;
    format      ascii;
    class       volScalarField;
    object      boundaryT;
}
// * * * * * * * * * * * * * * * * * * * * * * * * * * * * * * * * * * * * * //

dimensions      [0 0 0 1 0 0 0];

internalField   uniform 0;

boundaryField
{
    inletDisk
    {
        type            fixedValue;
        value           uniform 3000;
    }

    topOutlet
    {
        type            fixedValue;
        value           uniform 3000;
    }

    radialOutlet
    {
        type            fixedValue;
        value           uniform 3000;
    }

    symmetryPlane
    {
        type            symmetry;
    }

    solidCylinder
    {
        type            fixedValue;
        value           uniform 3000;
    }

    floorWall
    {
        type            fixedValue;
        value           uniform 3000;
    }
}


// ************************************************************************* //

