/*---------------------------------------------------------------------------*\
| =========                |                                                 |
| \      /  F ield         | OpenFOAM: The Open Source CFD Toolbox           |
|  \    /   O peration     | Script: scripts/quarter_cylinder_mesh.py        |
|   \  /    A nd           | Time: 2026-01-31 03:28:18.238867                |
|    \/     M anipulation  |                                                 |
\*---------------------------------------------------------------------------*/
FoamFile
{
    version     2.0;
    format      ascii;
    class       dictionary;
    object      blockMeshDict;
}
// * * * * * * * * * * * * * * * * * * * * * * * * * * * * * * * * * * * * * //

vertices
(
	(0.00000000 0.00000000 0.00000000) // 0
	(16.00000000 0.00000000 0.00000000) // 1
	(12.21070000 12.21070000 0.00000000) // 2
	(0.00000000 16.00000000 0.00000000) // 3
	(0.00000000 0.00000000 10.00000000) // 4
	(16.00000000 0.00000000 10.00000000) // 5
	(12.21070000 12.21070000 10.00000000) // 6
	(0.00000000 16.00000000 10.00000000) // 7
	(20.00000000 0.00000000 0.00000000) // 8
	(14.14213562 14.14213562 0.00000000) // 9
	(20.00000000 0.00000000 10.00000000) // 10
	(14.14213562 14.14213562 10.00000000) // 11
	(0.00000000 20.00000000 0.00000000) // 12
	(0.00000000 20.00000000 10.00000000) // 13
);

blocks
(
	hex ( 0 1 2 3 4 5 6 7 )  ( 12 12 20 ) simpleGrading ( 1.0 1 1 ) // 0 
	hex ( 1 8 9 2 5 10 11 6 )  ( 8 12 20 ) simpleGrading ( 1 1 1 ) // 1 
	hex ( 2 9 12 3 6 11 13 7 )  ( 8 12 20 ) simpleGrading ( 1 1 1 ) // 2 
);

edges
(
		spline 1 2 ((15.84050000 2.24538000 0.00000000) (15.25174000 4.44926000 0.00000000) (14.49992000 6.53384000 0.00000000) (13.73032000 8.42354000 0.00000000) (13.04600000 10.04152000 0.00000000) (12.51826000 11.33052000 0.00000000) (12.21070000 12.21064000 0.00000000))
		spline 2 3 ((12.21064000 12.21070000 0.00000000) (11.33052000 12.51826000 0.00000000) (10.04152000 13.04600000 0.00000000) (8.42354000 13.73032000 0.00000000) (6.53384000 14.49992000 0.00000000) (4.44926000 15.25174000 0.00000000) (2.24538000 15.84050000 0.00000000))
		spline 5 6 ((15.84050000 2.24538000 10.00000000) (15.25174000 4.44926000 10.00000000) (14.49992000 6.53384000 10.00000000) (13.73032000 8.42354000 10.00000000) (13.04600000 10.04152000 10.00000000) (12.51826000 11.33052000 10.00000000) (12.21070000 12.21064000 10.00000000))
		spline 6 7 ((12.21064000 12.21070000 10.00000000) (11.33052000 12.51826000 10.00000000) (10.04152000 13.04600000 10.00000000) (8.42354000 13.73032000 10.00000000) (6.53384000 14.49992000 10.00000000) (4.44926000 15.25174000 10.00000000) (2.24538000 15.84050000 10.00000000))
	arc 8 9 (18.47759065 7.65366865 0.00000000) // arc 8 9 origin 1 (0.00000000 0.00000000 0.00000000)
	arc 10 11 (18.47759065 7.65366865 10.00000000) // arc 10 11 origin 1 (0.00000000 0.00000000 10.00000000)
	arc 9 12 (7.65366865 18.47759065 0.00000000) // arc 9 12 origin 1 (0.00000000 0.00000000 0.00000000)
	arc 11 13 (7.65366865 18.47759065 10.00000000) // arc 11 13 origin 1 (0.00000000 0.00000000 10.00000000)
);

boundary
(
	floorWall
	{
		type wall;
		faces
		(
			(2 9 12 3)
			(0 1 2 3)
			(1 8 9 2)
		);
	}

	symmetryPlane
	{
		type symmetry;
		faces
		(
			(4 0 3 7)
			(4 5 1 0)
			(7 13 12 3)
			(5 10 8 1)
		);
	}

	topOutlet
	{
		type patch;
		faces
		(
			(4 5 6 7)
			(5 10 11 6)
			(6 11 13 7)
		);
	}

	radialOutlet
	{
		type patch;
		faces
		(
			(11 9 12 13)
			(10 8 9 11)
		);
	}

);

faces
(
);

// defaultPatch
// {
// 	name default;
// 	type wall;
// }

mergePatchPairs
(
);

scale 1;

// * * * * * * * * * * * * * * * * * * * * * * * * * * * * * * * * * * * * * //
// Created with classy_blocks: https://github.com/damogranlabs/classy_blocks //
// * * * * * * * * * * * * * * * * * * * * * * * * * * * * * * * * * * * * * //
