/*--------------------------------*- C++ -*----------------------------------*\
| =========                 |                                                 |
| \\      /  F ield         | OpenFOAM: The Open Source CFD Toolbox           |
|  \\    /   O peration     | Version:  v2512                                 |
|   \\  /    A nd           | Website:  www.openfoam.com                      |
|    \\/     M anipulation  |                                                 |
\*---------------------------------------------------------------------------*/
FoamFile
{
    version     2.0;
    format      ascii;
    class       dictionary;
    object      snappyHexMeshDict;
}
// * * * * * * * * * * * * * * * * * * * * * * * * * * * * * * * * * * * * * //

// Which of the steps to run
castellatedMesh true;
snap            true;
addLayers       false;


// Geometry. Definition of all surfaces. All surfaces are of class
// searchableSurface.
// Surfaces are used
// - to specify refinement for any mesh cell intersecting it
// - to specify refinement for any mesh cell inside/outside/near
// - to 'snap' the mesh boundary to the surface
geometry
{
    solidCylinder
    {
        type searchableCylinder;
        point1 (0 0 10);
        point2 (0 0 1);   // axis along +z; change as needed
        radius 0.8;       // set your radius
    }

    inletDisk
    {
        type searchableCylinder;
        point1 (0 0 1);
        point2 (0 0 0.9);   // axis along +z; change as needed
        radius 0.8;       // set your radius
    }
};



// Settings for the castellatedMesh generation.
castellatedMeshControls
{
    maxLocalCells 200000;
    maxGlobalCells 2000000;
    minRefinementCells 10;
    maxLoadUnbalance 0.10;
    nCellsBetweenLevels 2;

    features (); // none needed for a pure cylinder

    refinementSurfaces
    {
        solidCylinder
        {
            level (2 3); // min/max refinement around the cylinder
            patchInfo
            {
                type wall;           // no-slip wall
                inGroups (cylinderWall);
            }
        }

        inletDisk
        {
            level (1 2); // lighter refinement on the inlet cap
            patchInfo
            {
                type patch;
                inGroups (inletGroup);
            }
        }
    }

    resolveFeatureAngle 60;

    refinementRegions
    {
    }

    locationInMesh (0 0 0.2); // pick a point inside the fluid domain
    locationsOutsideMesh ();   // not needed here

    allowFreeStandingZoneFaces false;
    useLeakClosure true;
}



// Settings for the snapping.
snapControls
{
    //- Number of patch smoothing iterations before finding correspondence
    //  to surface
    nSmoothPatch 3;

    //- Relative distance for points to be attracted by surface feature point
    //  or edge. True distance is this factor times local
    //  maximum edge length.
    tolerance 2.0;

    //- Number of mesh displacement relaxation iterations.
    nSolveIter 30;

    //- Maximum number of snapping relaxation iterations. Should stop
    //  before upon reaching a correct mesh.
    nRelaxIter 5;

    // Feature snapping

        //- Number of feature edge snapping iterations.
        //  Leave out altogether to disable.
        nFeatureSnapIter 10;

        //- Detect (geometric only) features by sampling the surface
        //  (default=false).
        implicitFeatureSnap false;

        //- Use castellatedMeshControls::features (default = true)
        explicitFeatureSnap true;

        //- Detect points on multiple surfaces (only for explicitFeatureSnap)
        multiRegionFeatureSnap false;
}



// Settings for the layer addition.
addLayersControls
{
}



// Generic mesh quality settings. At any undoable phase these determine
// where to undo.
meshQualityControls
{
    maxNonOrtho 65;
    maxBoundarySkewness 20;
    maxInternalSkewness 4;
    maxConcave 80;
    minVol 1e-13;
    minTetQuality 1e-9;
    minDeterminant 1e-9;
    minFaceWeight 0.02;
    minVolRatio 0.01;
    minTriangleTwist -1;
    minTwist 0.02;
    minArea -1;
    minVolCollapse 1e-13;
    maxAspectRatio 1000;

    // Advanced
    nSmoothScale 4;
    errorReduction 0.75;
}


// Advanced

// Format to use for lines (e.g. leak path)
setFormat ensight;


// Write flags
writeFlags
(
    scalarLevels
    layerSets
    layerFields     // write volScalarField for layer coverage
);


// Merge tolerance. Is fraction of overall bounding box of initial mesh.
// Note: the write tolerance needs to be higher than this.
mergeTolerance 1e-6;


// ************************************************************************* //
