/*--------------------------------*- C++ -*----------------------------------*\
| =========                 |                                                 |
| \\      /  F ield         | OpenFOAM: The Open Source CFD Toolbox           |
|  \\    /   O peration     | Version:  v2406                                 |
|   \\  /    A nd           | Website:  www.openfoam.com                      |
|    \\/     M anipulation  |                                                 |
\*---------------------------------------------------------------------------*/
FoamFile
{
    version     2.0;
    format      ascii;
    class       volScalarField;
    object      rhoN;
}
// * * * * * * * * * * * * * * * * * * * * * * * * * * * * * * * * * * * * * //

dimensions      [0 -3 0 0 0 0 0];

internalField   uniform 0;

boundaryField
{
    inlet
    {
        type            zeroGradient;
    }

    topOutlet
    {
        type            zeroGradient;
    }

    radialOutlet
    {
        type            zeroGradient;
    }

    symmetryPlane
    {
        type            symmetry;
    }

    solidCylinder
    {
        type            zeroGradient;
    }

    inletDisk
    {
        type            zeroGradient;
    }
}


// ************************************************************************* //

